Circuit: * C:\Users\Amir\Desktop\Lab4\Lab4.asc

Warning: Multiple definitions of model "aons66402" Type: Vdmos1
WARNING: Node NC_02 is floating.

WARNING: Less than two connections to node NC_01.  This node is used by R1.
WARNING: Less than two connections to node NC_02.  This node is used by C1.
Direct Newton iteration failed to find .op point.  (Use ".option noopiter" to skip.)
Starting Gmin stepping
Gmin = 10
Gmin = 1.07374
Gmin = 0.115292
Gmin = 0.0123794
Gmin = 0.00132923
Gmin = 0.000142725
Gmin = 1.5325e-005
Gmin = 1.6455e-006
Gmin = 1.76685e-007
Gmin = 1.89714e-008
Gmin = 2.03704e-009
Gmin = 2.18725e-010
Gmin = 2.34854e-011
Gmin = 2.52173e-012
Gmin = 2.70769e-013
Gmin = 0
Gmin stepping succeeded in finding the operating point.

Heightened Def Con from 6e-009 to 6.0002e-009
Heightened Def Con from 1.601e-008 ++++++++++to 1.601e-008
Heightened Def Con from 1.601e-008 to 1.60102e-008
Heightened Def Con from 2.6e-008 to 2.6e-008
Heightened Def Con from 2.801e-008 ++to 2.801e-008
Heightened Def Con from 3.201e-008 to 3.201e-008
Heightened Def Con from 3.4e-008 +to 3.4e-008
Heightened Def Con from 3.601e-008 ++++++++++to 3.601e-008
Heightened Def Con from 3.601e-008 to 3.60102e-008
Heightened Def Con from 4.001e-008 to 4.001e-008
Heightened Def Con from 4.001e-008 to 4.00102e-008
Heightened Def Con from 4.401e-008 to 4.401e-008
Heightened Def Con from 4.6e-008 to 4.6e-008
Heightened Def Con from 4.801e-008 +to 4.801e-008
Heightened Def Con from 5.201e-008 ++++++++++++++++++++++++++++++++++++to 5.201e-008
Heightened Def Con from 5.4e-008 to 5.40002e-008
Heightened Def Con from 5.601e-008 +++++++++++++++++++to 5.601e-008
Heightened Def Con from 5.601e-008 to 5.60102e-008
Heightened Def Con from 6.401e-008 +to 6.401e-008
Heightened Def Con from 6.801e-008 to 6.8012e-008
Heightened Def Con from 7e-008 +++++++++++++++to 7e-008
Heightened Def Con from 7e-008 to 7.00002e-008
Heightened Def Con from 7.4e-008 +to 7.4e-008
Heightened Def Con from 7.601e-008 +++++++to 7.601e-008
Heightened Def Con from 7.601e-008 +++++++++to 7.601e-008
Heightened Def Con from 7.601e-008 to 7.60102e-008
Heightened Def Con from 8.001e-008 +to 8.001e-008
Heightened Def Con from 8.401e-008 to 8.401e-008
Heightened Def Con from 8.401e-008 to 8.40102e-008
Heightened Def Con from 8.801e-008 +to 8.801e-008
Heightened Def Con from 9e-008 to 9e-008
Heightened Def Con from 9e-008 to 9.0002e-008
Heightened Def Con from 9.201e-008 ++++++++++++++++++++++++++++++++++to 9.201e-008
Heightened Def Con from 9.4e-008 ++++to 9.4e-008
Heightened Def Con from 9.4e-008 +++++to 9.4e-008
Heightened Def Con from 9.4e-008 +++++++++++to 9.4e-008
Heightened Def Con from 9.4e-008 to 9.40002e-008
Heightened Def Con from 9.601e-008 to 9.6012e-008
Heightened Def Con from 1.0401e-007 +++++++++++++++++++++to 1.0401e-007
Heightened Def Con from 1.0401e-007 to 1.0401e-007
Heightened Def Con from 1.0801e-007 ++++to 1.0801e-007
Heightened Def Con from 1.0801e-007 ++++++++to 1.0801e-007
Heightened Def Con from 1.0801e-007 to 1.08012e-007
Heightened Def Con from 1.1201e-007 ++to 1.1201e-007
Heightened Def Con from 1.1201e-007 to 1.1201e-007
Heightened Def Con from 1.1601e-007 +to 1.1601e-007
Heightened Def Con from 1.1601e-007 to 1.1601e-007
Heightened Def Con from 1.2001e-007 to 1.2001e-007
Heightened Def Con from 1.2001e-007 to 1.2001e-007
Heightened Def Con from 1.2401e-007 ++++++++to 1.2401e-007
Heightened Def Con from 1.2401e-007 to 1.24012e-007
Heightened Def Con from 1.2801e-007 to 1.2801e-007
Heightened Def Con from 1.2801e-007 +++to 1.2801e-007
Heightened Def Con from 1.2801e-007 to 1.2801e-007

Date: Thu May 06 04:58:08 2021
Total elapsed time: 31.158 seconds.

tnom = 27
temp = 27
method = modified trap
totiter = 272505
traniter = 272079
tranpoints = 131885
accept = 131416
rejected = 738
matrix size = 214
fillins = 12
solver = Normal
Thread vector: 149.3/81.1[4] 17.7/11.9[4] 8.5/3.0[4] 1.1/2.6[1]  2592/500
Matrix Compiler1: 30.13 KB object code size  8.6/5.0/[3.4]
Matrix Compiler2: 26.90 KB object code size  9.0/8.6/[1.3]

