Circuit: * C:\Users\Amir\Desktop\Lab4\code\Lab4.asc

Warning: Multiple definitions of model "aons66402" Type: Vdmos1
Direct Newton iteration failed to find .op point.  (Use ".option noopiter" to skip.)
Starting Gmin stepping
Gmin = 10
Gmin = 1.07374
Gmin = 0.115292
Gmin = 0.0123794
Gmin = 0.00132923
Gmin = 0.000142725
Gmin = 1.5325e-005
Gmin = 1.6455e-006
Gmin = 1.76685e-007
Gmin = 1.89714e-008
Gmin = 2.03704e-009
Gmin = 2.18725e-010
Gmin = 2.34854e-011
Gmin = 2.52173e-012
Gmin = 2.70769e-013
Gmin = 0
Gmin stepping succeeded in finding the operating point.

Heightened Def Con from 2.2e-008 to 2.2e-008
Heightened Def Con from 2.6e-008 +to 2.6e-008
Heightened Def Con from 2.801e-008 to 2.801e-008
Heightened Def Con from 3e-008 to 3e-008
Heightened Def Con from 4.801e-008 to 4.801e-008
Heightened Def Con from 6.401e-008 to 6.40102e-008
Heightened Def Con from 7.4e-008 to 7.4002e-008
Heightened Def Con from 8.2e-008 to 8.2002e-008
Heightened Def Con from 9e-008 to 9e-008
Heightened Def Con from 9.8e-008 to 9.8e-008
Heightened Def Con from 9.8e-008 to 9.8002e-008

Date: Thu May 06 16:31:41 2021
Total elapsed time: 33.907 seconds.

tnom = 27
temp = 27
method = modified trap
totiter = 267460
traniter = 267034
tranpoints = 131969
accept = 131786
rejected = 195
matrix size = 212
fillins = 14
solver = Normal
Thread vector: 60.4/33.7[4] 24.1/7.7[4] 4.7/3.8[2] 1.2/2.3[1]  2592/500
Matrix Compiler1: 30.14 KB object code size  7.3/2.7/[1.3]
Matrix Compiler2: 26.79 KB object code size  4.8/4.3/[1.5]

