Circuit: * C:\Users\Amir\Desktop\Lab4\code\NAND.asc

Warning: Multiple definitions of model "aons66402" Type: Vdmos1
WARNING: Node IN_A is floating.
WARNING: Node IN_B is floating.

.OP point found by inspection.

Date: Thu May 06 16:19:59 2021
Total elapsed time: 0.453 seconds.

tnom = 27
temp = 27
method = modified trap
totiter = 20034
traniter = 20034
tranpoints = 10018
accept = 10018
rejected = 0
matrix size = 21
fillins = 2
solver = Normal
Matrix Compiler1: 4.23 KB object code size  0.5/0.3/[0.2]
Matrix Compiler2: 2.56 KB object code size  0.1/0.3/[0.1]

